@<TRIPOS>MOLECULE
*****
 35 38 0 0 0
SMALL
GASTEIGER

@<TRIPOS>ATOM
      1 N           5.0394    4.2213    0.2294 N.ar    1  UNL1       -0.2407
      2 C           6.2244    4.1911   -0.4184 C.ar    1  UNL1        0.0989
      3 C           6.3309    4.2914   -1.8028 C.ar    1  UNL1        0.0207
      4 C           5.1670    4.4291   -2.5515 C.ar    1  UNL1        0.0040
      5 C           3.9352    4.4612   -1.8968 C.ar    1  UNL1        0.0313
      6 C           3.8991    4.3542   -0.4949 C.ar    1  UNL1        0.1163
      7 C           2.7516    4.5997   -2.6265 C.ar    1  UNL1        0.0590
      8 C           1.5271    4.6310   -1.9687 C.ar    1  UNL1        0.0122
      9 C           1.4711    4.5228   -0.5814 C.ar    1  UNL1        0.0386
     10 C           2.6548    4.3864    0.1487 C.ar    1  UNL1        0.1638
     11 O           2.5915    4.2849    1.5254 O.3     1  UNL1       -0.4228
     12 C           0.1305    4.5571    0.1310 C.3     1  UNL1        0.1429
     13 N          -0.8595    3.6428   -0.4447 N.pl3   1  UNL1       -0.1965
     14 C          -0.4094    5.9527    0.3668 C.ar    1  UNL1        0.0017
     15 C          -1.3436    2.5793    0.2714 C.ar    1  UNL1        0.2371
     16 C          -0.4736    6.4534    1.6656 C.ar    1  UNL1       -0.0021
     17 C          -0.9633    7.7369    1.8981 C.ar    1  UNL1        0.0062
     18 C          -1.3927    8.5327    0.8346 C.ar    1  UNL1        0.0756
     19 C          -1.3263    8.0274   -0.4656 C.ar    1  UNL1        0.0062
     20 C          -0.8371    6.7439   -0.6992 C.ar    1  UNL1       -0.0021
     21 N          -2.1006    1.7050   -0.4300 N.ar    1  UNL1       -0.2109
     22 C          -2.5868    0.6456    0.2545 C.ar    1  UNL1        0.1035
     23 C          -2.3239    0.4642    1.6115 C.ar    1  UNL1        0.0414
     24 C          -1.5385    1.4217    2.2515 C.ar    1  UNL1        0.1035
     25 N          -1.0419    2.4908    1.5908 N.ar    1  UNL1       -0.2109
     26 CL          2.7685    4.7377   -4.3531 Cl      1  UNL1       -0.0822
     27 C           2.3961    3.1115    2.1605 C.2     1  UNL1        0.3215
     28 O           2.2497    2.0423    1.6011 O.2     1  UNL1       -0.2497
     29 C           2.3556    3.2748    3.6599 C.3     1  UNL1        0.1100
     30 C           0.9719    3.7567    4.1208 C.3     1  UNL1        0.0122
     31 C          -3.1848   12.4791   -1.2333 C.3     1  UNL1        0.0513
     32 C          -2.8202   11.9280    0.1520 C.3     1  UNL1        0.2089
     33 O          -2.3017   10.5896   -0.0112 O.3     1  UNL1       -0.4454
     34 C          -1.9166    9.9110    1.0934 C.2     1  UNL1        0.3412
     35 O          -1.9849   10.3745    2.2166 O.2     1  UNL1       -0.2449
@<TRIPOS>BOND
     1     1     2   ar
     2     2     3   ar
     3     3     4   ar
     4     4     5   ar
     5     5     6   ar
     6     1     6   ar
     7     7     8   ar
     8     8     9   ar
     9     9    10   ar
    10     5     7   ar
    11     6    10   ar
    12    10    11    1
    13    12     9    1
    14    12    13    1
    15    12    14    1
    16    13    15    1
    17    16    17   ar
    18    17    18   ar
    19    18    19   ar
    20    19    20   ar
    21    14    16   ar
    22    14    20   ar
    23    21    22   ar
    24    22    23   ar
    25    23    24   ar
    26    15    21   ar
    27    15    25   ar
    28    25    24   ar
    29     7    26    1
    30    11    27    1
    31    27    28    2
    32    27    29    1
    33    29    30    1
    34    18    34    1
    35    31    32    1
    36    32    33    1
    37    33    34    1
    38    34    35    2
