@<TRIPOS>MOLECULE
*****
 27 30 0 0 0
SMALL
GASTEIGER

@<TRIPOS>ATOM
      1 N          -0.7023   -6.5579    1.2188 N.ar    1  UNL1       -0.2406
      2 C          -1.4587   -7.6659    1.3822 C.ar    1  UNL1        0.0989
      3 C          -2.6499   -7.8768    0.6924 C.ar    1  UNL1        0.0207
      4 C          -3.0810   -6.9048   -0.2042 C.ar    1  UNL1        0.0032
      5 C          -2.3078   -5.7594   -0.3792 C.ar    1  UNL1        0.0208
      6 C          -1.1138   -5.6025    0.3457 C.ar    1  UNL1        0.1198
      7 C          -2.7334   -4.7821   -1.2735 C.ar    1  UNL1        0.0014
      8 C          -1.9730   -3.6336   -1.4590 C.ar    1  UNL1        0.0010
      9 C          -0.7831   -3.4559   -0.7553 C.ar    1  UNL1        0.0420
     10 C          -0.3568   -4.4373    0.1470 C.ar    1  UNL1        0.2110
     11 O           0.8076   -4.2510    0.8400 O.3     1  UNL1       -0.2852
     12 C           0.0337   -2.1922   -0.9712 C.3     1  UNL1        0.1424
     13 N          -0.6434   -0.9925   -0.4668 N.pl3   1  UNL1       -0.2129
     14 C           0.5574   -2.0261   -2.3900 C.ar    1  UNL1        0.0130
     15 C           0.0370   -0.0253    0.2276 C.ar    1  UNL1        0.1481
     16 C          -0.3041   -1.5890   -3.3981 C.ar    1  UNL1       -0.0014
     17 C           0.1560   -1.4242   -4.7017 C.ar    1  UNL1        0.0007
     18 C           1.4870   -1.6949   -5.0057 C.ar    1  UNL1        0.0122
     19 C           2.3566   -2.1297   -4.0080 C.ar    1  UNL1        0.0680
     20 C           1.8959   -2.2966   -2.6975 C.ar    1  UNL1        0.0661
     21 N           1.3796   -0.1468    0.3743 N.ar    1  UNL1       -0.2277
     22 C           2.0326    0.8190    1.0591 C.ar    1  UNL1        0.1004
     23 C           1.3861    1.9242    1.6113 C.ar    1  UNL1        0.0208
     24 C           0.0076    2.0446    1.4531 C.ar    1  UNL1        0.0045
     25 C          -0.6755    1.0549    0.7500 C.ar    1  UNL1        0.0358
     26 CL          2.9818   -2.8376   -1.4572 Cl      1  UNL1       -0.0816
     27 CL          4.0039   -2.4542   -4.4329 Cl      1  UNL1       -0.0814
@<TRIPOS>BOND
     1     1     2   ar
     2     2     3   ar
     3     3     4   ar
     4     4     5   ar
     5     5     6   ar
     6     1     6   ar
     7     7     8   ar
     8     8     9   ar
     9     9    10   ar
    10     5     7   ar
    11     6    10   ar
    12    10    11    1
    13    12     9    1
    14    12    13    1
    15    12    14    1
    16    13    15    1
    17    16    17   ar
    18    17    18   ar
    19    18    19   ar
    20    19    20   ar
    21    14    16   ar
    22    14    20   ar
    23    21    22   ar
    24    22    23   ar
    25    23    24   ar
    26    15    21   ar
    27    15    25   ar
    28    25    24   ar
    29    20    26    1
    30    19    27    1
