@<TRIPOS>MOLECULE
MMRi64_3D.mol
45 48 1 0 0
PROTEIN
AMBER ff14SB


@<TRIPOS>ATOM
      1 C1         -4.5674   -6.4849   -0.8444 C.ar      1 UNK    0.0595
      2 C2         -5.8754   -6.0347   -1.0971 C.ar      1 UNK   -0.0420
      3 C3         -6.1084   -4.6846   -1.3873 C.ar      1 UNK   -0.0603
      4 C4         -5.0373   -3.7778   -1.4205 C.ar      1 UNK   -0.0552
      5 C5         -3.7025   -4.1811   -1.1489 C.ar      1 UNK   -0.0030
      6 C6         -3.4814   -5.5671   -0.8599 C.ar      1 UNK    0.0646
      7 C7         -2.6075   -3.1370   -1.1422 C.3       1 UNK    0.0758
      8 C8         -2.0870   -2.8016   -2.5160 C.ar      1 UNK    0.0091
      9 N1         -3.0119   -1.9703   -0.3923 N.pl3     1 UNK   -0.3182
     10 C9         -0.7839   -3.1841   -2.9483 C.ar      1 UNK    0.1029
     11 C10        -0.2693   -2.7332   -4.1835 C.ar      1 UNK    0.1005
     12 C11        -1.0522   -1.9026   -5.0271 C.ar      1 UNK    0.0029
     13 C12        -2.3544   -1.5503   -4.6224 C.ar      1 UNK   -0.0523
     14 C13        -2.8605   -1.9976   -3.3902 C.ar      1 UNK   -0.0534
     15 N2          0.9922   -3.0708   -4.5718 N.ar      1 UNK   -0.2535
     16 C14         1.5505   -2.6514   -5.7341 C.ar      1 UNK    0.0276
     17 C15         0.8147   -1.8259   -6.6011 C.ar      1 UNK   -0.0432
     18 C16        -0.4916   -1.4482   -6.2413 C.ar      1 UNK   -0.0512
     19 C17        -2.2437   -0.8776   -0.0988 C.ar      1 UNK    0.1182
     20 C18        -2.6211   -0.0286    0.9642 C.ar      1 UNK   -0.0189
     21 C19        -1.8022    1.0710    1.3193 C.ar      1 UNK   -0.0461
     22 C20        -0.6491    1.3382    0.5482 C.ar      1 UNK   -0.0407
     23 C21        -0.3263    0.4914   -0.5255 C.ar      1 UNK    0.0293
     24 N3         -1.1132   -0.5789   -0.7964 N.ar      1 UNK   -0.2416
     25 O1          0.0313   -3.9639   -2.1903 O.3       1 UNK   -0.3583
     26 C22        -2.1106    1.9302    2.4872 C.3       1 UNK   -0.0396
     27 Cl1        -4.3837   -8.1466   -0.5267 Cl        1 UNK   -0.0827
     28 Cl2        -1.9297   -6.1769   -0.5148 Cl        1 UNK   -0.0823
     29 H2         -6.7008   -6.7305   -1.0674 H         1 UNK    0.0639
     30 H3         -7.1128   -4.3408   -1.5857 H         1 UNK    0.0623
     31 H4         -5.2338   -2.7431   -1.6596 H         1 UNK    0.0627
     32 H7         -1.7712   -3.5752   -0.5975 H         1 UNK    0.0608
     33 H1         -3.9616   -1.9606   -0.0487 H         1 UNK    0.1490
     34 H12        -2.9673   -0.9330   -5.2626 H         1 UNK    0.0630
     35 H13        -3.8641   -1.7218   -3.1020 H         1 UNK    0.0628
     36 H14         2.5557   -2.9503   -5.9922 H         1 UNK    0.0840
     37 H15         1.2463   -1.4861   -7.5310 H         1 UNK    0.0639
     38 H16        -1.0671   -0.8094   -6.8948 H         1 UNK    0.0630
     39 H18        -3.5353   -0.2179    1.5072 H         1 UNK    0.0662
     40 H20        -0.0215    2.1855    0.7818 H         1 UNK    0.0642
     41 H21         0.5444    0.6921   -1.1321 H         1 UNK    0.0841
     42 HO1        -0.0709   -4.8820   -2.4515 H         1 UNK    0.2184
     43 H221       -3.0283    1.5831    2.9620 H         1 UNK    0.0280
     44 H222       -1.2898    1.8788    3.2026 H         1 UNK    0.0280
     45 H223       -2.2400    2.9606    2.1561 H         1 UNK    0.0280
@<TRIPOS>BOND
     1    1    2 ar
     2    2    3 ar
     3    3    4 ar
     4    4    5 ar
     5    5    6 ar
     6    1    6 ar
     7    7    5 1
     8    7    8 1
     9    7    9 1
    10   10   11 ar
    11   11   12 ar
    12   12   13 ar
    13   13   14 ar
    14    8   10 ar
    15    8   14 ar
    16   15   16 ar
    17   16   17 ar
    18   17   18 ar
    19   11   15 ar
    20   12   18 ar
    21    9   19 1
    22   20   21 ar
    23   21   22 ar
    24   22   23 ar
    25   23   24 ar
    26   19   20 ar
    27   19   24 ar
    28   10   25 1
    29   21   26 1
    30    1   27 1
    31    6   28 1
    32   29    2 1
    33   30    3 1
    34   31    4 1
    35   32    7 1
    36   33    9 1
    37   34   13 1
    38   35   14 1
    39   36   16 1
    40   37   17 1
    41   38   18 1
    42   39   20 1
    43   40   22 1
    44   41   23 1
    45   42   25 1
    46   43   26 1
    47   44   26 1
    48   45   26 1
@<TRIPOS>SUBSTRUCTURE
     1 UNK     1 RESIDUE           4 A     UNK     0 ROOT
