
  Mrv1810 04152311192D          

 28 31  0  0  0  0            999 V2000
   -2.6423    0.1468    0.0000 C   0  0  0  0  0  0  0  0  0  0  0  0
   -3.3567   -0.2657    0.0000 C   0  0  0  0  0  0  0  0  0  0  0  0
   -3.3567   -1.0907    0.0000 C   0  0  0  0  0  0  0  0  0  0  0  0
   -2.6423   -1.5032    0.0000 C   0  0  0  0  0  0  0  0  0  0  0  0
   -1.9278   -1.0907    0.0000 C   0  0  0  0  0  0  0  0  0  0  0  0
   -1.9278   -0.2657    0.0000 C   0  0  0  0  0  0  0  0  0  0  0  0
   -1.2133   -1.5032    0.0000 C   0  0  1  0  0  0  0  0  0  0  0  0
   -0.4989   -1.0907    0.0000 C   0  0  0  0  0  0  0  0  0  0  0  0
   -1.2133   -2.3282    0.0000 N   0  0  0  0  0  0  0  0  0  0  0  0
    0.2156   -1.5032    0.0000 C   0  0  0  0  0  0  0  0  0  0  0  0
    0.9301   -1.0907    0.0000 C   0  0  0  0  0  0  0  0  0  0  0  0
    0.9301   -0.2657    0.0000 C   0  0  0  0  0  0  0  0  0  0  0  0
    0.2156    0.1468    0.0000 C   0  0  0  0  0  0  0  0  0  0  0  0
   -0.4989   -0.2657    0.0000 C   0  0  0  0  0  0  0  0  0  0  0  0
    1.6446   -1.5032    0.0000 N   0  0  0  0  0  0  0  0  0  0  0  0
    2.3590   -1.0907    0.0000 C   0  0  0  0  0  0  0  0  0  0  0  0
    2.3590   -0.2657    0.0000 C   0  0  0  0  0  0  0  0  0  0  0  0
    1.6446    0.1468    0.0000 C   0  0  0  0  0  0  0  0  0  0  0  0
   -1.9278   -2.7407    0.0000 C   0  0  0  0  0  0  0  0  0  0  0  0
   -1.9278   -3.5657    0.0000 C   0  0  0  0  0  0  0  0  0  0  0  0
   -2.6423   -3.9782    0.0000 C   0  0  0  0  0  0  0  0  0  0  0  0
   -3.3567   -3.5657    0.0000 C   0  0  0  0  0  0  0  0  0  0  0  0
   -3.3567   -2.7407    0.0000 C   0  0  0  0  0  0  0  0  0  0  0  0
   -2.6423   -2.3282    0.0000 N   0  0  0  0  0  0  0  0  0  0  0  0
    0.2156   -2.3282    0.0000 O   0  0  0  0  0  0  0  0  0  0  0  0
   -2.6423   -4.8032    0.0000 C   0  0  0  0  0  0  0  0  0  0  0  0
   -2.6423    0.9718    0.0000 Cl  0  0  0  0  0  0  0  0  0  0  0  0
   -1.2133    0.1468    0.0000 Cl  0  0  0  0  0  0  0  0  0  0  0  0
  1  2  2  0  0  0  0
  2  3  1  0  0  0  0
  3  4  2  0  0  0  0
  4  5  1  0  0  0  0
  5  6  2  0  0  0  0
  1  6  1  0  0  0  0
  7  5  1  0  0  0  0
  7  8  1  0  0  0  0
  7  9  1  1  0  0  0
 10 11  1  0  0  0  0
 11 12  1  0  0  0  0
 12 13  1  0  0  0  0
 13 14  2  0  0  0  0
  8 10  2  0  0  0  0
  8 14  1  0  0  0  0
 15 16  1  0  0  0  0
 16 17  2  0  0  0  0
 17 18  1  0  0  0  0
 11 15  2  0  0  0  0
 12 18  2  0  0  0  0
  9 19  1  0  0  0  0
 20 21  2  0  0  0  0
 21 22  1  0  0  0  0
 22 23  2  0  0  0  0
 23 24  1  0  0  0  0
 19 20  1  0  0  0  0
 19 24  2  0  0  0  0
 10 25  1  0  0  0  0
 21 26  1  0  0  0  0
  1 27  1  0  0  0  0
  6 28  1  0  0  0  0
M  END
