
  Mrv1810 04152310593D          

 28 31  0  0  0  0            999 V2000
   -4.5674   -6.4849   -0.8444 C   0  0  0  0  0  0  0  0  0  0  0  0
   -5.8754   -6.0347   -1.0971 C   0  0  0  0  0  0  0  0  0  0  0  0
   -6.1084   -4.6846   -1.3873 C   0  0  0  0  0  0  0  0  0  0  0  0
   -5.0373   -3.7778   -1.4205 C   0  0  0  0  0  0  0  0  0  0  0  0
   -3.7025   -4.1811   -1.1489 C   0  0  0  0  0  0  0  0  0  0  0  0
   -3.4814   -5.5671   -0.8599 C   0  0  0  0  0  0  0  0  0  0  0  0
   -2.6075   -3.1370   -1.1422 C   0  0  1  0  0  0  0  0  0  0  0  0
   -2.0870   -2.8016   -2.5160 C   0  0  0  0  0  0  0  0  0  0  0  0
   -3.0119   -1.9703   -0.3923 N   0  0  0  0  0  0  0  0  0  0  0  0
   -0.7839   -3.1841   -2.9483 C   0  0  0  0  0  0  0  0  0  0  0  0
   -0.2693   -2.7332   -4.1835 C   0  0  0  0  0  0  0  0  0  0  0  0
   -1.0522   -1.9026   -5.0271 C   0  0  0  0  0  0  0  0  0  0  0  0
   -2.3544   -1.5503   -4.6224 C   0  0  0  0  0  0  0  0  0  0  0  0
   -2.8605   -1.9976   -3.3902 C   0  0  0  0  0  0  0  0  0  0  0  0
    0.9922   -3.0708   -4.5718 N   0  0  0  0  0  0  0  0  0  0  0  0
    1.5505   -2.6514   -5.7341 C   0  0  0  0  0  0  0  0  0  0  0  0
    0.8147   -1.8259   -6.6011 C   0  0  0  0  0  0  0  0  0  0  0  0
   -0.4916   -1.4482   -6.2413 C   0  0  0  0  0  0  0  0  0  0  0  0
   -2.2437   -0.8776   -0.0988 C   0  0  0  0  0  0  0  0  0  0  0  0
   -2.6211   -0.0286    0.9642 C   0  0  0  0  0  0  0  0  0  0  0  0
   -1.8022    1.0710    1.3193 C   0  0  0  0  0  0  0  0  0  0  0  0
   -0.6491    1.3382    0.5482 C   0  0  0  0  0  0  0  0  0  0  0  0
   -0.3263    0.4914   -0.5255 C   0  0  0  0  0  0  0  0  0  0  0  0
   -1.1132   -0.5789   -0.7964 N   0  0  0  0  0  0  0  0  0  0  0  0
    0.0313   -3.9639   -2.1903 O   0  0  0  0  0  0  0  0  0  0  0  0
   -2.1106    1.9302    2.4872 C   0  0  0  0  0  0  0  0  0  0  0  0
   -4.3837   -8.1466   -0.5267 Cl  0  0  0  0  0  0  0  0  0  0  0  0
   -1.9297   -6.1769   -0.5148 Cl  0  0  0  0  0  0  0  0  0  0  0  0
  1  2  2  0  0  0  0
  2  3  1  0  0  0  0
  3  4  2  0  0  0  0
  4  5  1  0  0  0  0
  5  6  2  0  0  0  0
  1  6  1  0  0  0  0
  7  5  1  0  0  0  0
  7  8  1  0  0  0  0
  7  9  1  0  0  0  0
 10 11  1  0  0  0  0
 11 12  1  0  0  0  0
 12 13  1  0  0  0  0
 13 14  2  0  0  0  0
  8 10  2  0  0  0  0
  8 14  1  0  0  0  0
 15 16  1  0  0  0  0
 16 17  2  0  0  0  0
 17 18  1  0  0  0  0
 11 15  2  0  0  0  0
 12 18  2  0  0  0  0
  9 19  1  0  0  0  0
 20 21  2  0  0  0  0
 21 22  1  0  0  0  0
 22 23  2  0  0  0  0
 23 24  1  0  0  0  0
 19 20  1  0  0  0  0
 19 24  2  0  0  0  0
 10 25  1  0  0  0  0
 21 26  1  0  0  0  0
  1 27  1  0  0  0  0
  6 28  1  0  0  0  0
M  END
