@<TRIPOS>MOLECULE
*****
 40 45 0 0 0
SMALL
GASTEIGER

@<TRIPOS>ATOM
      1 O          -1.1996   -2.4473    3.0095 O.3     1  UNL1       -0.2866
      2 C          -1.6028   -1.2393    2.5279 C.ar    1  UNL1        0.1957
      3 C          -2.7173   -0.6082    3.0716 C.ar    1  UNL1        0.0421
      4 C          -3.1307    0.6283    2.5806 C.ar    1  UNL1        0.0063
      5 C          -2.4331    1.2585    1.5318 C.ar    1  UNL1        0.0349
      6 C          -1.3083    0.6032    0.9956 C.ar    1  UNL1        0.0063
      7 C          -0.8998   -0.6334    1.4910 C.ar    1  UNL1        0.0421
      8 C          -2.8763    2.5963    0.9972 C.ar    1  UNL1        0.1486
      9 C          -2.3127    3.0901    0.1590 C.ar    1  UNL1        0.0797
     10 C          -2.6514    4.3826   -0.4818 C.ar    1  UNL1        0.2049
     11 O          -1.9997    4.8758   -1.3806 O.2     1  UNL1       -0.2862
     12 C          -3.8555    4.9717    0.1277 C.ar    1  UNL1        0.1158
     13 C          -4.5041    6.2274   -0.1890 C.ar    1  UNL1        0.2050
     14 O          -4.0670    7.0192   -1.2083 O.3     1  UNL1       -0.2862
     15 C          -5.6017    6.6728    0.5435 C.ar    1  UNL1        0.0831
     16 C          -6.1309    5.9329    1.5952 C.ar    1  UNL1        0.1902
     17 O          -7.2417    6.4361    2.2509 O.3     1  UNL1       -0.4500
     18 C          -7.3240    6.6063    3.6197 C.ar    1  UNL1        0.1455
     19 C          -6.1783    6.7326    4.4041 C.ar    1  UNL1        0.0376
     20 C          -6.2869    6.9231    5.7794 C.ar    1  UNL1        0.0062
     21 C          -7.5486    7.0022    6.3995 C.ar    1  UNL1        0.0349
     22 C          -8.6940    6.8895    5.5883 C.ar    1  UNL1        0.0062
     23 C          -8.5792    6.6990    4.2130 C.ar    1  UNL1        0.0376
     24 C          -7.6690    7.2054    7.8886 C.ar    1  UNL1        0.1484
     25 C          -8.6900    7.2573    8.3584 C.ar    1  UNL1        0.0797
     26 C          -8.9789    7.4306    9.8015 C.ar    1  UNL1        0.2048
     27 O         -10.1029    7.4805   10.2599 O.2     1  UNL1       -0.2862
     28 C          -7.7306    7.5335   10.5757 C.ar    1  UNL1        0.1126
     29 C          -7.5633    7.7107   12.0046 C.ar    1  UNL1        0.2049
     30 O          -8.6328    7.7983   12.8450 O.3     1  UNL1       -0.2862
     31 C          -6.2932    7.7990   12.5712 C.ar    1  UNL1        0.0843
     32 C          -5.1426    7.7188   11.7941 C.ar    1  UNL1        0.2020
     33 O          -3.9179    7.8108   12.3826 O.3     1  UNL1       -0.2864
     34 C          -5.2381    7.5452   10.4191 C.ar    1  UNL1        0.0798
     35 C          -6.5297    7.4478    9.7944 C.ar    1  UNL1        0.1546
     36 O          -6.6834    7.2869    8.4260 O.2     1  UNL1       -0.4531
     37 C          -5.5815    4.6872    1.9122 C.ar    1  UNL1        0.2642
     38 O          -6.1167    3.8976    2.8907 O.3     1  UNL1       -0.2800
     39 C          -4.4404    4.1935    1.1810 C.ar    1  UNL1        0.1931
     40 O          -3.7864    3.0124    1.5081 O.2     1  UNL1       -0.4498
@<TRIPOS>BOND
     1     1     2    1
     2     2     3   ar
     3     3     4   ar
     4     4     5   ar
     5     5     6   ar
     6     6     7   ar
     7     2     7   ar
     8     5     8    1
     9     8     9   ar
    10     9    10   ar
    11    10    11    2
    12    10    12   ar
    13    12    13   ar
    14    13    14    1
    15    13    15   ar
    16    15    16   ar
    17    16    17    1
    18    17    18    1
    19    18    19   ar
    20    19    20   ar
    21    20    21   ar
    22    21    22   ar
    23    22    23   ar
    24    18    23   ar
    25    21    24    1
    26    24    25   ar
    27    25    26   ar
    28    26    27    2
    29    26    28   ar
    30    28    29   ar
    31    29    30    1
    32    29    31   ar
    33    31    32   ar
    34    32    33    1
    35    32    34   ar
    36    34    35   ar
    37    28    35   ar
    38    35    36   ar
    39    24    36   ar
    40    16    37   ar
    41    37    38    1
    42    37    39   ar
    43    12    39   ar
    44    39    40   ar
    45     8    40   ar
